Circuit: * U:\Windows\Bureau\be chti\TP2\Cablage2.asc

Direct Newton iteration failed to find .op point.  (Use ".option noopiter" to skip.)
Starting Gmin stepping
Gmin = 10
Gmin = 1.07374
vernier = 0.5
vernier = 0.25
vernier = 0.125
vernier = 0.0625
Gmin = 1.08884
vernier = 0.03125
vernier = 0.015625
Gmin = 1.03122
vernier = 0.0078125
vernier = 0.0104167
vernier = 0.00520833
Gmin = 1.01724
vernier = 0.00260417
vernier = 0.00347222
Gmin = 1.01042
vernier = 0.00173611
vernier = 0.00231481
vernier = 0.00115741
Gmin = 1.00852
vernier = 0.00154321
vernier = 0.000771604
Gmin = 1.00667
vernier = 0.00102881
vernier = 0.000514403
vernier = 0.00068587
Gmin = 1.00542
vernier = 0.000514403
vernier = 0.00068587
vernier = 0.000514402
Gmin = 1.00461
Gmin = 0
Gmin stepping failed

Starting source stepping with srcstepmethod=0
Source Step = 3.0303%
Source Step = 18.75%
Source Step = 20.6439%
Source Step = 22.5379%
Source Step = 24.4318%
Source Step = 26.3258%
vernier = 0.09375
Source Step = 28.4091%
Source Step = 31.25%
Source Step = 34.0909%
Source Step = 36.9318%
Source Step = 39.7727%
vernier = 0.140625
Source Step = 42.7557%
Source Step = 47.017%
Source Step = 51.2784%
Source Step = 55.5398%
Source Step = 59.8011%
Source Step = 64.0625%
vernier = 0.210938
Source Step = 70.4545%
Source Step = 76.8466%
Source Step = 83.2386%
Source Step = 89.6307%
Source Step = 96.0227%
vernier = 0.316406
Source stepping succeeded in finding the operating point.


Date: Thu Mar 03 09:03:59 2022
Total elapsed time: 0.493 seconds.

tnom = 27
temp = 27
method = modified trap
totiter = 11702
traniter = 5060
tranpoints = 2461
accept = 2098
rejected = 363
matrix size = 9
fillins = 6
solver = Normal
Matrix Compiler1: 694 bytes object code size  0.3/0.1/[0.1]
Matrix Compiler2: 941 bytes object code size  0.2/0.2/[0.1]

